Version 4
SHEET 1 880 680
WIRE 352 48 144 48
WIRE 144 112 144 48
WIRE 352 112 352 48
WIRE 144 240 144 192
WIRE 336 240 144 240
WIRE 352 240 352 192
WIRE 352 240 336 240
WIRE 336 288 336 240
FLAG 336 288 0
SYMBOL res 368 208 R180
WINDOW 0 36 76 Left 2
WINDOW 3 36 40 Left 2
SYMATTR InstName R1
SYMATTR Value 70
SYMBOL voltage 144 96 R0
WINDOW 123 0 0 Left 0
WINDOW 39 0 0 Left 0
SYMATTR InstName V1
SYMATTR Value SINE(0 9 79.577)
TEXT 110 246 Left 2 !.tran 0 10m 0 0.1m
