Version 4
SHEET 1 880 680
WIRE 240 16 48 16
WIRE 416 16 240 16
WIRE 560 16 416 16
WIRE 784 16 560 16
WIRE 48 80 48 16
WIRE 240 80 240 16
WIRE 416 80 416 16
WIRE 560 80 560 16
WIRE 784 80 784 16
WIRE 784 192 784 160
WIRE 48 336 48 160
WIRE 112 336 48 336
WIRE 240 336 240 160
WIRE 240 336 176 336
WIRE 416 336 416 160
WIRE 416 336 320 336
WIRE 480 336 416 336
WIRE 560 336 560 160
WIRE 560 336 544 336
WIRE 176 416 -16 416
WIRE 240 416 240 336
WIRE 416 416 240 416
WIRE 48 448 48 336
WIRE 560 464 560 336
WIRE -16 496 -16 416
WIRE 176 512 176 416
WIRE 320 512 320 336
WIRE 320 512 176 512
WIRE 416 512 416 416
WIRE 496 512 416 512
FLAG 48 544 0
FLAG 560 560 0
FLAG 784 192 0
SYMBOL res 32 64 R0
SYMATTR InstName R1
SYMATTR Value 8k
SYMBOL res 224 64 R0
SYMATTR InstName R2
SYMATTR Value 150k
SYMBOL res 400 64 R0
SYMATTR InstName R3
SYMATTR Value 150k
SYMBOL res 544 64 R0
SYMATTR InstName R4
SYMATTR Value 8k
SYMBOL cap 176 320 R90
WINDOW 0 0 32 VBottom 2
WINDOW 3 32 32 VTop 2
SYMATTR InstName C1
SYMATTR Value 14µ
SYMBOL cap 544 320 R90
WINDOW 0 0 32 VBottom 2
WINDOW 3 32 32 VTop 2
SYMATTR InstName C2
SYMATTR Value 14µ
SYMBOL npn -16 448 R0
SYMATTR InstName Q1
SYMATTR Value 2N3904
SYMBOL npn 496 464 R0
SYMATTR InstName Q2
SYMATTR Value 2N3904
SYMBOL voltage 784 64 R0
WINDOW 123 0 0 Left 0
WINDOW 39 0 0 Left 0
SYMATTR InstName V1
SYMATTR Value 2
TEXT -22 584 Left 2 !.tran 10
