Version 4
SHEET 1 880 680
WIRE 688 -240 608 -240
WIRE 128 -176 64 -176
WIRE 320 -176 208 -176
WIRE 400 -176 320 -176
WIRE 560 -176 480 -176
WIRE 688 -176 688 -240
WIRE 608 -96 608 -240
WIRE 608 -96 448 -96
WIRE 448 -16 448 -96
WIRE 320 0 320 -176
WIRE 416 0 320 0
WIRE 560 16 560 -176
WIRE 560 16 480 16
WIRE 688 16 560 16
WIRE 160 32 64 32
WIRE 416 32 240 32
WIRE 688 96 688 16
WIRE 64 112 64 32
WIRE 64 304 64 192
WIRE 368 304 64 304
WIRE 688 304 688 176
WIRE 688 304 368 304
WIRE 448 352 448 48
WIRE 480 352 448 352
WIRE 368 432 368 304
FLAG 480 432 0
FLAG 368 432 0
FLAG 688 -96 0
FLAG 64 -176 0
SYMBOL voltage 64 96 R0
WINDOW 123 0 0 Left 0
WINDOW 39 0 0 Left 0
SYMATTR InstName V1
SYMATTR Value SINE(0 0.3 50)
SYMBOL res 256 16 R90
WINDOW 0 -8 61 VBottom 2
WINDOW 3 32 56 VTop 2
SYMATTR InstName R2
SYMATTR Value 2.14k
SYMBOL OpAmps\\AD549 448 -48 R0
SYMATTR InstName U1
SYMBOL res 496 -192 R90
WINDOW 0 0 56 VBottom 2
WINDOW 3 32 56 VTop 2
SYMATTR InstName R3
SYMATTR Value 30k
SYMBOL voltage 688 -192 R0
WINDOW 123 0 0 Left 0
WINDOW 39 0 0 Left 0
SYMATTR InstName V2
SYMATTR Value 15
SYMBOL res 672 80 R0
SYMATTR InstName R4
SYMATTR Value 100k
SYMBOL voltage 480 336 R0
WINDOW 123 0 0 Left 0
WINDOW 39 0 0 Left 0
SYMATTR InstName V3
SYMATTR Value -15
SYMBOL res 224 -192 R90
WINDOW 0 0 56 VBottom 2
WINDOW 3 32 56 VTop 2
SYMATTR InstName R1
SYMATTR Value 2.14k
TEXT 38 504 Left 2 !.tran 0.1
