Version 4
SHEET 1 1352 680
WIRE 624 -80 368 -80
WIRE 368 0 368 -80
WIRE 512 0 368 0
WIRE 624 32 624 -80
WIRE 368 48 368 0
WIRE -288 64 -544 64
WIRE 512 64 512 0
WIRE 320 112 80 112
WIRE -544 128 -544 64
WIRE -288 128 -288 64
WIRE 80 160 80 112
WIRE 368 160 368 112
WIRE 512 160 512 128
WIRE 512 160 368 160
WIRE 368 224 368 160
WIRE -544 304 -544 208
WIRE -288 304 -288 208
WIRE -288 304 -544 304
WIRE 80 352 80 240
WIRE 368 352 368 304
WIRE 368 352 80 352
WIRE 624 352 624 112
WIRE 624 352 368 352
WIRE 368 400 368 352
FLAG 368 400 0
SYMBOL voltage 80 144 R0
WINDOW 3 -182 103 Left 2
WINDOW 123 0 0 Left 0
WINDOW 39 0 0 Left 0
SYMATTR Value PULSE(10 10 0.005 0 0 0.01m 0.02)
SYMATTR InstName V1
SYMBOL voltage 624 16 R0
WINDOW 123 0 0 Left 0
WINDOW 39 0 0 Left 0
SYMATTR InstName V2
SYMATTR Value SINE(0 20{f})
SYMBOL res 352 208 R0
SYMATTR InstName R1
SYMATTR Value 10
SYMBOL Misc\\SCR 352 48 R0
SYMATTR InstName U2
SYMATTR Value S6S1
SYMBOL voltage -544 112 R0
WINDOW 123 0 0 Left 0
WINDOW 39 0 0 Left 0
SYMATTR InstName V3
SYMATTR Value {Ud}
SYMBOL res -304 112 R0
SYMATTR InstName R2
SYMATTR Value 1
SYMBOL diode 528 128 R180
WINDOW 0 24 64 Left 2
WINDOW 3 -15 -3 Left 2
SYMATTR InstName D1
SYMATTR Value 1N914
TEXT -56 464 Left 2 !.inc "Thyristor_SCR_EC103xx_SxSx_A_SPICE_Model_lib.lib"
TEXT -56 488 Left 2 !.param f=50 Ud=12.88
TEXT -56 520 Left 2 !.tran 50m
