Version 4
SHEET 1 880 680
WIRE 48 -736 -64 -736
WIRE 48 -720 48 -736
WIRE -64 -560 -64 -736
WIRE -128 -512 -416 -512
WIRE 48 -512 48 -640
WIRE 48 -512 -64 -512
WIRE 112 -512 48 -512
WIRE 256 -512 112 -512
WIRE -416 -432 -416 -512
WIRE -416 -192 -416 -352
WIRE -416 -192 -544 -192
WIRE -352 -192 -416 -192
WIRE 112 -192 112 -512
WIRE 112 -192 -272 -192
WIRE 256 -192 256 -512
WIRE -416 -48 -416 -192
WIRE -144 -48 -416 -48
WIRE 48 -48 48 -512
WIRE 48 -48 -80 -48
WIRE 256 0 256 -112
WIRE 256 0 -80 0
FLAG -544 -192 0
SYMBOL Misc\\SCR -128 -528 M90
SYMATTR InstName VS1
SYMATTR Value EC103D2
SYMBOL voltage 48 -736 R0
WINDOW 123 0 0 Left 0
WINDOW 39 0 0 Left 0
SYMATTR InstName G1
SYMATTR Value PULSE(0 5 {delay} 0 0 {width} {T})
SYMBOL voltage -416 -448 R0
WINDOW 123 0 0 Left 0
WINDOW 39 0 0 Left 0
SYMATTR InstName V1
SYMATTR Value SINE(0 100 {f} 0)
SYMBOL Misc\\SCR -144 -32 R270
SYMATTR InstName VS2
SYMATTR Value EC103D2
SYMBOL res -256 -208 R90
WINDOW 0 0 56 VBottom 2
WINDOW 3 32 56 VTop 2
SYMATTR InstName RH
SYMATTR Value 10
SYMBOL voltage 256 -96 R180
WINDOW 0 -68 25 Left 2
WINDOW 3 -512 96 Left 2
WINDOW 123 0 0 Left 0
WINDOW 39 0 0 Left 0
SYMATTR InstName G2
SYMATTR Value PULSE(0 5 {delay} 0 0 {width} {T})
TEXT -560 48 Left 2 !.lib C:\\Program Files\\LTC\\LTspiceXVII\\lib\\sub\\Thyristor_SCR.lib
TEXT -560 232 Left 2 !.tran 0.07
TEXT -560 80 Left 2 !.param f = 50 T = 1/f
TEXT -560 112 Left 2 !.param delay = alpha*T/360
TEXT -560 144 Left 2 !.param width = 50u
TEXT -560 176 Left 2 !.step param alpha 0 150 30
