Version 4
SHEET 1 880 680
WIRE -144 -640 -528 -640
WIRE 112 -640 -144 -640
WIRE -528 -560 -528 -640
WIRE -528 -416 -528 -496
WIRE -352 -416 -528 -416
WIRE -192 -416 -288 -416
WIRE -144 -416 -144 -640
WIRE 112 -384 112 -640
WIRE -528 -352 -528 -416
WIRE -528 -192 -528 -272
WIRE -144 -192 -144 -352
WIRE -144 -192 -528 -192
WIRE -144 -144 -144 -192
WIRE -144 -48 -144 -64
WIRE -32 -48 -144 -48
WIRE -144 -32 -144 -48
WIRE -32 -32 -32 -48
WIRE -144 64 -144 48
WIRE -32 64 -32 32
WIRE -32 64 -144 64
WIRE -144 96 -144 64
WIRE -16 96 -144 96
WIRE 112 96 112 -304
WIRE 112 96 -16 96
WIRE -16 144 -16 96
FLAG -144 -192 out
FLAG -16 144 0
SYMBOL cap -544 -560 R0
SYMATTR InstName C1
SYMATTR Value 45n
SYMBOL res -544 -368 R0
SYMATTR InstName R1
SYMATTR Value {R2}
SYMBOL ZZZ\\Triac\\BT_TRIAC -176 -352 M180
SYMATTR InstName U2
SYMATTR SpiceModel BTA12-600B
SYMBOL voltage 112 -400 R0
WINDOW 123 0 0 Left 0
WINDOW 39 0 0 Left 0
SYMATTR InstName V1
SYMATTR Value SINE(0 100 50)
SYMBOL ZZZ\\DIAC\\DB3 -288 -448 R90
WINDOW 0 0 32 VBottom 2
WINDOW 3 93 30 VBottom 2
SYMATTR InstName U1
SYMATTR Value DB3
SYMBOL ind -160 -48 R0
SYMATTR InstName L1
SYMATTR Value 20m
SYMBOL res -160 -160 R0
SYMATTR InstName R2
SYMATTR Value 100
SYMBOL diode -48 -32 R0
SYMATTR InstName D1
TEXT -520 -104 Left 2 !.tran 0.05
TEXT -520 -152 Left 2 !.step param R2 10k 300k 50k
TEXT -520 200 Left 2 !.lib C:\\Program Files\\LTC\\LTspiceXVII\\lib\\sub\\Thyristor_SCR.lib
TEXT -520 248 Left 2 !.lib C:\\Program Files\\LTC\\LTspiceXVII\\lib\\sub\\st_diacs.lib
TEXT -520 296 Left 2 !.lib C:\\Program Files\\LTC\\LTspiceXVII\\lib\\sub\\st_standard_snubberless_triacs.lib
