Version 4
SHEET 1 880 680
WIRE -112 80 -288 80
WIRE 400 80 -32 80
WIRE -608 96 -656 96
WIRE -288 240 -288 80
WIRE -112 240 -288 240
WIRE 160 240 -32 240
WIRE 288 240 240 240
WIRE 400 240 400 80
WIRE 400 240 368 240
WIRE -288 400 -288 240
WIRE -112 400 -288 400
WIRE 144 400 -32 400
WIRE 288 400 224 400
WIRE 400 400 400 240
WIRE 400 400 368 400
FLAG 400 400 0
SYMBOL voltage -16 80 R90
WINDOW 0 -32 56 VBottom 2
WINDOW 3 32 56 VTop 2
WINDOW 123 0 0 Left 0
WINDOW 39 0 0 Left 0
SYMATTR InstName A
SYMATTR Value SINE(0 164 60 0 0 0)
SYMBOL voltage -16 240 R90
WINDOW 0 -32 56 VBottom 2
WINDOW 3 32 56 VTop 2
SYMATTR InstName B
SYMATTR Value SINE(0 164 60 0 0 -120)
SYMBOL voltage -16 400 R90
WINDOW 0 -32 56 VBottom 2
WINDOW 3 32 56 VTop 2
SYMATTR InstName C
SYMATTR Value SINE(0 164 60 0 0 120)
SYMBOL res 144 256 R270
WINDOW 0 32 56 VTop 2
WINDOW 3 0 56 VBottom 2
SYMATTR InstName Rb
SYMATTR Value 27
SYMBOL res 128 416 R270
WINDOW 0 32 56 VTop 2
WINDOW 3 0 56 VBottom 2
SYMATTR InstName Rc
SYMATTR Value 27
SYMBOL ind -624 112 R270
WINDOW 0 32 56 VTop 2
WINDOW 3 5 56 VBottom 2
SYMATTR InstName La
SYMATTR Value 0.281
SYMBOL ind 272 256 R270
WINDOW 0 32 56 VTop 2
WINDOW 3 5 56 VBottom 2
SYMATTR InstName Lb
SYMATTR Value 0.365
SYMBOL ind 272 416 R270
WINDOW 0 32 56 VTop 2
WINDOW 3 5 56 VBottom 2
SYMATTR InstName Lc
SYMATTR Value 0.393
SYMBOL res -752 112 R270
WINDOW 0 32 56 VTop 2
WINDOW 3 0 56 VBottom 2
SYMATTR InstName R1
SYMATTR Value 45
TEXT -320 624 Left 2 !.tran 0.1
