Version 4
SHEET 1 1068 680
WIRE 48 -272 48 -352
WIRE 336 -272 336 -352
WIRE 48 -80 48 -192
WIRE 192 -80 48 -80
WIRE 336 -80 336 -192
WIRE 336 -80 192 -80
WIRE 144 80 -32 80
WIRE 288 96 256 96
WIRE 384 96 288 96
WIRE 144 112 80 112
WIRE 288 176 288 96
WIRE 288 176 128 176
WIRE 80 208 80 112
WIRE 320 208 80 208
WIRE 128 288 128 176
WIRE 160 288 128 288
WIRE 320 304 320 208
WIRE 320 304 272 304
WIRE 384 304 320 304
WIRE 160 320 -32 320
FLAG 48 -352 R
IOPIN 48 -352 In
FLAG 336 -352 S
IOPIN 336 -352 In
FLAG 192 -80 0
FLAG -32 80 R
IOPIN -32 80 In
FLAG -32 320 S
IOPIN -32 320 In
FLAG 384 96 Q
IOPIN 384 96 Out
FLAG 384 304 Q_
IOPIN 384 304 Out
SYMBOL ZZZ\\LOGIC\\74HC\\74hc02 192 32 R0
SYMATTR InstName U1
SYMBOL ZZZ\\LOGIC\\74HC\\74hc02 208 240 R0
SYMATTR InstName U2
SYMBOL voltage 48 -288 R0
WINDOW 3 -399 105 Left 2
WINDOW 123 0 0 Left 0
WINDOW 39 0 0 Left 0
SYMATTR Value PULSE(0 5 0.1u 1n 1n 0.25u 0.75u)
SYMATTR InstName V1
SYMBOL voltage 336 -288 R0
WINDOW 3 -26 113 Left 2
WINDOW 123 0 0 Left 0
WINDOW 39 0 0 Left 0
SYMATTR Value PULSE(0 5 0.25u 1n 1n  0.25u 0.5u)
SYMATTR InstName V2
TEXT -202 448 Left 2 !.tran 2u
