Version 4
SHEET 1 880 680
WIRE 336 0 288 0
WIRE 480 0 416 0
WIRE 32 96 -80 96
WIRE 288 96 288 0
WIRE 288 96 112 96
WIRE 336 96 288 96
WIRE 480 112 480 0
WIRE 480 112 400 112
WIRE 336 128 288 128
WIRE 128 192 32 192
WIRE 288 192 288 128
WIRE 288 192 208 192
WIRE -80 224 -80 96
WIRE 32 224 32 192
WIRE 288 224 288 192
WIRE -80 352 -80 304
WIRE 32 352 32 304
WIRE 288 352 288 304
FLAG 288 352 0
FLAG 32 352 0
FLAG -80 352 0
SYMBOL res 128 80 R90
WINDOW 0 0 56 VBottom 2
WINDOW 3 32 56 VTop 2
SYMATTR InstName R1
SYMBOL res 432 -16 R90
WINDOW 0 0 56 VBottom 2
WINDOW 3 32 56 VTop 2
SYMATTR InstName R2
SYMBOL res 224 176 R90
WINDOW 0 0 56 VBottom 2
WINDOW 3 32 56 VTop 2
SYMATTR InstName R3
SYMBOL res 304 320 R180
WINDOW 0 36 76 Left 2
WINDOW 3 36 40 Left 2
SYMATTR InstName R4
SYMBOL voltage -80 208 R0
SYMATTR InstName V1
SYMBOL voltage 32 208 R0
SYMATTR InstName V2
SYMBOL Opamps\\AD746 368 48 R0
SYMATTR InstName U1
