Version 4
SHEET 1 920 680
WIRE -64 -192 -64 -240
WIRE -96 -176 -352 -176
WIRE 112 -160 -32 -160
WIRE 224 -160 176 -160
WIRE -96 -144 -144 -144
WIRE -64 -96 -64 -128
WIRE -240 -32 -240 -96
WIRE -240 80 -240 48
WIRE 544 96 544 80
WIRE -144 112 -144 -144
WIRE 32 112 -144 112
WIRE 160 112 112 112
WIRE -352 208 -352 -176
WIRE -304 208 -352 208
WIRE -240 208 -240 160
WIRE -240 208 -304 208
WIRE 544 208 544 176
WIRE 544 208 496 208
WIRE 544 240 544 208
WIRE -304 272 -304 208
WIRE 544 336 544 320
WIRE -144 352 -144 112
WIRE -128 352 -144 352
WIRE 32 368 -64 368
WIRE 224 368 224 -160
WIRE 224 368 96 368
WIRE 288 368 224 368
WIRE -304 384 -304 352
WIRE -128 384 -304 384
WIRE -304 400 -304 384
WIRE 224 416 224 368
WIRE -304 528 -304 480
WIRE 224 528 224 496
FLAG -64 -240 V_input
IOPIN -64 -240 In
FLAG -64 -96 -V_input
IOPIN -64 -96 In
FLAG 288 368 V_output
IOPIN 288 368 Out
FLAG 496 208 0
FLAG 544 80 V_input
IOPIN 544 80 In
FLAG 544 336 -V_input
IOPIN 544 336 In
FLAG -304 528 0
FLAG 160 112 0
FLAG -240 -96 0
FLAG -96 336 V_input
IOPIN -96 336 In
FLAG -96 400 -V_input
IOPIN -96 400 In
FLAG 224 528 0
SYMBOL Opamps\\AD746 -64 -224 R0
SYMATTR InstName U1
SYMBOL voltage 544 224 R0
WINDOW 123 0 0 Left 0
WINDOW 39 0 0 Left 0
SYMATTR InstName V3
SYMATTR Value 12
SYMBOL voltage 544 80 R0
WINDOW 123 0 0 Left 0
WINDOW 39 0 0 Left 0
SYMATTR InstName V4
SYMATTR Value 12
SYMBOL res -256 64 R0
SYMATTR InstName R1
SYMATTR Value 12k
SYMBOL res -320 256 R0
SYMATTR InstName R2
SYMATTR Value 2k
SYMBOL res -320 384 R0
SYMATTR InstName R3
SYMATTR Value 10k
SYMBOL diode 112 -144 R270
WINDOW 0 32 32 VTop 2
WINDOW 3 0 32 VBottom 2
SYMATTR InstName D1
SYMATTR Value 1N914
SYMBOL voltage 16 112 R270
WINDOW 0 -32 56 VBottom 2
WINDOW 3 32 56 VTop 2
WINDOW 123 0 0 Left 0
WINDOW 39 0 0 Left 0
SYMATTR InstName V1
SYMATTR Value SINE(0 15 100)
SYMBOL voltage -240 64 R180
WINDOW 0 24 96 Left 2
WINDOW 3 24 16 Left 2
WINDOW 123 0 0 Left 0
WINDOW 39 0 0 Left 0
SYMATTR InstName V2
SYMATTR Value 12
SYMBOL Opamps\\AD746 -96 304 R0
SYMATTR InstName U2
SYMBOL res 208 400 R0
SYMATTR InstName R4
SYMATTR Value 0.5k
SYMBOL diode 32 384 R270
WINDOW 0 32 32 VTop 2
WINDOW 3 0 32 VBottom 2
SYMATTR InstName D2
SYMATTR Value 1N914
TEXT 544 504 Left 2 !.tran 0.1
