Version 4
SHEET 1 880 824
WIRE 192 -80 -176 -80
WIRE 496 -80 192 -80
WIRE -176 16 -176 -80
WIRE 192 16 192 -80
WIRE 496 16 496 -80
WIRE 496 144 496 96
WIRE 192 240 192 96
WIRE 192 240 48 240
WIRE 304 240 192 240
WIRE 496 240 368 240
WIRE -416 320 -560 320
WIRE -176 320 -176 96
WIRE -176 320 -352 320
WIRE 0 320 -176 320
WIRE -176 512 -176 320
WIRE -560 656 -560 320
WIRE -560 784 -560 736
FLAG -176 592 0
FLAG 48 336 0
FLAG 496 144 0
FLAG -560 784 0
SYMBOL voltage 496 0 R0
SYMATTR InstName V1
SYMATTR Value 6
SYMBOL voltage -560 640 R0
WINDOW 123 0 0 Left 0
WINDOW 39 0 0 Left 0
SYMATTR InstName V2
SYMATTR Value SINE(0 0.1 1k)
SYMBOL nmos 0 240 R0
SYMATTR InstName M1
SYMATTR Value FDMS3622SQ2
SYMBOL res 176 0 R0
SYMATTR InstName R1
SYMATTR Value 8
SYMBOL res -192 0 R0
SYMATTR InstName R2
SYMATTR Value 10.45e6
SYMBOL res -192 496 R0
SYMATTR InstName R3
SYMATTR Value 4.23e6
SYMBOL cap -352 304 R90
WINDOW 0 0 32 VBottom 2
WINDOW 3 32 32 VTop 2
SYMATTR InstName C1
SYMATTR Value 1µ
SYMBOL cap 368 224 R90
WINDOW 0 0 32 VBottom 2
WINDOW 3 32 32 VTop 2
SYMATTR InstName C2
SYMATTR Value 1µ
TEXT 366 792 Left 2 !.tran 0.02
